
     RDKit          3D

 24 27  0  0  0  0  0  0  0  0999 V2000
    6.7397   -0.3769    0.7721 C   0  0  0  0  0  0  0  0  0  0  0  0
    5.9149   -0.6306   -0.3580 O   0  0  0  0  0  0  0  0  0  0  0  0
    4.5640   -0.5252   -0.1744 C   0  0  0  0  0  0  0  0  0  0  0  0
    3.7957   -0.8495   -1.2954 C   0  0  0  0  0  0  0  0  0  0  0  0
    2.4008   -0.7839   -1.2470 C   0  0  0  0  0  0  0  0  0  0  0  0
    1.7568   -0.3768   -0.0758 C   0  0  0  0  0  0  0  0  0  0  0  0
    0.2980   -0.3064   -0.0339 C   0  0  0  0  0  0  0  0  0  0  0  0
   -0.4911   -1.3572   -0.1295 N   0  0  0  0  0  0  0  0  0  0  0  0
   -1.7774   -0.8886   -0.0108 C   0  0  0  0  0  0  0  0  0  0  0  0
   -3.0043   -1.6010   -0.0184 C   0  0  0  0  0  0  0  0  0  0  0  0
   -3.0144   -3.0006   -0.1671 C   0  0  0  0  0  0  0  0  0  0  0  0
   -4.2245   -3.6926   -0.1727 C   0  0  0  0  0  0  0  0  0  0  0  0
   -5.4248   -2.9975   -0.0304 C   0  0  0  0  0  0  0  0  0  0  0  0
   -5.4226   -1.6067    0.1184 C   0  0  0  0  0  0  0  0  0  0  0  0
   -4.2165   -0.8875    0.1271 C   0  0  0  0  0  0  0  0  0  0  0  0
   -4.1828    0.5063    0.2756 C   0  0  0  0  0  0  0  0  0  0  0  0
   -2.9766    1.2207    0.2820 C   0  0  0  0  0  0  0  0  0  0  0  0
   -1.7850    0.4972    0.1350 C   0  0  0  0  0  0  0  0  0  0  0  0
   -0.4503    0.8555    0.0827 N   0  0  0  0  0  0  0  0  0  0  0  0
    0.0911    2.2137    0.0996 C   0  0  0  0  0  0  0  0  0  0  0  0
   -0.1289    2.9088    1.4433 C   0  0  0  0  0  0  0  0  0  0  0  0
   -0.4017    3.0610   -1.0754 C   0  0  0  0  0  0  0  0  0  0  0  0
    2.5257   -0.0674    1.0526 C   0  0  0  0  0  0  0  0  0  0  0  0
    3.9233   -0.1367    1.0028 C   0  0  0  0  0  0  0  0  0  0  0  0
  1  2  1  0
  2  3  1  0
  3  4  2  0
  4  5  1  0
  5  6  2  0
  6  7  1  0
  7  8  2  0
  8  9  1  0
  9 10  2  0
 10 11  1  0
 11 12  2  0
 12 13  1  0
 13 14  2  0
 14 15  1  0
 15 16  2  0
 16 17  1  0
 17 18  2  0
 18 19  1  0
 19 20  1  0
 20 21  1  0
 20 22  1  0
  6 23  1  0
 23 24  2  0
 24  3  1  0
 19  7  1  0
 18  9  1  0
 15 10  1  0
M  END
