
     RDKit          3D

 22 24  0  0  0  0  0  0  0  0999 V2000
   -4.1685   -3.3936    0.3579 C   0  0  0  0  0  0  0  0  0  0  0  0
   -3.4876   -2.1528   -0.0588 C   0  0  0  0  0  0  0  0  0  0  0  0
   -3.4642   -1.1139    0.8570 C   0  0  0  0  0  0  0  0  0  0  0  0
   -2.6109   -0.0627    0.6370 C   0  0  0  0  0  0  0  0  0  0  0  0
   -1.8633    0.0827   -0.5227 C   0  0  0  0  0  0  0  0  0  0  0  0
   -0.5815    0.7890   -0.3554 C   0  0  0  0  0  0  0  0  0  0  0  0
    0.6215    0.2120   -0.0294 C   0  0  0  0  0  0  0  0  0  0  0  0
    0.8950   -1.1442    0.1250 C   0  0  0  0  0  0  0  0  0  0  0  0
    2.1792   -1.6073    0.0530 C   0  0  0  0  0  0  0  0  0  0  0  0
    3.2604   -0.7742   -0.1868 C   0  0  0  0  0  0  0  0  0  0  0  0
    4.6018   -1.2897    0.1108 C   0  0  0  0  0  0  0  0  0  0  0  0
    5.0308   -1.1153    1.5357 C   0  0  0  0  0  0  0  0  0  0  0  0
    5.5810   -0.7466   -0.8911 C   0  0  0  0  0  0  0  0  0  0  0  0
    2.9616    0.4954   -0.4942 N   0  0  0  0  0  0  0  0  0  0  0  0
    1.6924    0.9782   -0.4772 C   0  0  0  0  0  0  0  0  0  0  0  0
    1.0385    2.5557   -0.2868 S   0  0  0  0  0  0  0  0  0  0  0  0
   -0.6056    2.1393   -0.0218 C   0  0  0  0  0  0  0  0  0  0  0  0
   -1.7055    2.9064    0.5803 C   0  0  0  0  0  0  0  0  0  0  0  0
   -1.6652    3.2438    1.8007 O   0  0  0  0  0  0  0  0  0  0  0  0
   -2.9495    2.9596   -0.0246 O   0  0  0  0  0  0  0  0  0  0  0  0
   -1.9707   -0.9318   -1.4631 C   0  0  0  0  0  0  0  0  0  0  0  0
   -2.7896   -2.0302   -1.2453 C   0  0  0  0  0  0  0  0  0  0  0  0
  1  2  1  0
  2  3  2  0
  3  4  1  0
  4  5  2  0
  5  6  1  0
  6  7  1  0
  7  8  2  0
  8  9  1  0
  9 10  2  0
 10 11  1  0
 11 12  1  0
 11 13  1  0
 10 14  1  0
 14 15  2  0
 15 16  1  0
 16 17  1  0
 17 18  1  0
 18 19  2  0
 18 20  1  0
  5 21  1  0
 21 22  2  0
 22  2  1  0
 17  6  2  0
 15  7  1  0
M  END
