
     RDKit          3D

 24 27  0  0  0  0  0  0  0  0999 V2000
    6.7874    0.5222    0.2265 C   0  0  0  0  0  0  0  0  0  0  0  0
    5.9296   -0.2393   -0.6142 O   0  0  0  0  0  0  0  0  0  0  0  0
    4.5841   -0.0790   -0.4302 C   0  0  0  0  0  0  0  0  0  0  0  0
    3.9772    0.7254    0.5342 C   0  0  0  0  0  0  0  0  0  0  0  0
    2.5811    0.7949    0.6132 C   0  0  0  0  0  0  0  0  0  0  0  0
    1.7777    0.0537   -0.2604 C   0  0  0  0  0  0  0  0  0  0  0  0
    0.3216    0.1461   -0.1593 C   0  0  0  0  0  0  0  0  0  0  0  0
   -0.3499    1.2721   -0.2960 N   0  0  0  0  0  0  0  0  0  0  0  0
   -1.6800    0.9488   -0.1783 C   0  0  0  0  0  0  0  0  0  0  0  0
   -2.8255    1.7801   -0.2772 C   0  0  0  0  0  0  0  0  0  0  0  0
   -2.6864    3.1578   -0.5300 C   0  0  0  0  0  0  0  0  0  0  0  0
   -3.8175    3.9668   -0.6265 C   0  0  0  0  0  0  0  0  0  0  0  0
   -5.0868    3.4104   -0.4728 C   0  0  0  0  0  0  0  0  0  0  0  0
   -5.2329    2.0421   -0.2222 C   0  0  0  0  0  0  0  0  0  0  0  0
   -4.1086    1.2068   -0.1207 C   0  0  0  0  0  0  0  0  0  0  0  0
   -4.2238   -0.1682    0.1282 C   0  0  0  0  0  0  0  0  0  0  0  0
   -3.0987   -0.9982    0.2306 C   0  0  0  0  0  0  0  0  0  0  0  0
   -1.8347   -0.4124    0.0746 C   0  0  0  0  0  0  0  0  0  0  0  0
   -0.5419   -0.9021    0.1251 N   0  0  0  0  0  0  0  0  0  0  0  0
   -0.1398   -2.2644    0.4731 C   0  0  0  0  0  0  0  0  0  0  0  0
   -0.5621   -3.2825   -0.5860 C   0  0  0  0  0  0  0  0  0  0  0  0
   -0.5905   -2.6738    1.8773 C   0  0  0  0  0  0  0  0  0  0  0  0
    2.3899   -0.7345   -1.2403 C   0  0  0  0  0  0  0  0  0  0  0  0
    3.7838   -0.8043   -1.3166 C   0  0  0  0  0  0  0  0  0  0  0  0
  1  2  1  0
  2  3  1  0
  3  4  2  0
  4  5  1  0
  5  6  2  0
  6  7  1  0
  7  8  2  0
  8  9  1  0
  9 10  2  0
 10 11  1  0
 11 12  2  0
 12 13  1  0
 13 14  2  0
 14 15  1  0
 15 16  2  0
 16 17  1  0
 17 18  2  0
 18 19  1  0
 19 20  1  0
 20 21  1  0
 20 22  1  0
  6 23  1  0
 23 24  2  0
 24  3  1  0
 19  7  1  0
 18  9  1  0
 15 10  1  0
M  END
